* C:\Users\Jason\Downloads\Real\Real\Draft2.asc
I1 N001 0 1
R1 N001 0 1
.op
.backanno
.end
