* C:\Users\Jason\Downloads\Real\Real\Draft1.asc
V1 N001 0 1
R1 N001 0 1
.op
.backanno
.end
