* C:\Users\Jason\Downloads\Real\Real\Transients\TRAN_V-Sine_V-DC_C+C.asc
R1 N004 N005 4
R3 N002 N001 3
R2 N006 0 5
V1 N003 0 SINE(0 1 10)
V2 N001 N003 1
C1 N005 N006 1
C2 N002 N004 1
.tran 1
.backanno
.end

