* C:\Users\david\Desktop\École\Université\Undergrad\Work\finalproject\ooftest.asc
V1 a 0 4
R1 0 b 2
V2 a b 0.7
.op
.backanno
.end
