* C:\Users\david\Desktop\École\Université\Undergrad\Work\Labs\ADC4\Draft6.asc
V1 a 0 SINE(0 1 1K)
R1 c b 5
R2 0 c 7
C1 b a 3
.op
.backanno
.end