* C:\Users\david\Desktop\École\Université\Undergrad\Work\Labs\ADC4\Draft10.asc
R1 a 0 10
R3 c b 6
V2 b a 4
V1 a 0 2
R2 0 c 8
.op
.backanno
.end
