* C:\Users\Jason\Desktop\Draft4.asc
R§BR a 0 5
V§BVoltage N001 0 1
R§AR N001 a 10
.op
.backanno
.end

