* C:\Users\david\Desktop\École\Université\Undergrad\Work\Labs\ADC4\Draft8.asc
V1 a 0 SINE(0 1 1K)
R1 0 c 7
R2 c b 5
L1 a b 3
.op
.backanno
.end

