* C:\Users\Jason\Desktop\Draft4.asc
Voltage a d 5
R1 a b 5
R2 c b 6
R3 c d 7
.op
.backanno
.end

