* C:\Users\Jason\Desktop\Draft4.asc
Voltage a d 5
R1 a b 4
R2 c b 5
R3 c d 6
.op
.backanno
.end

