* C:\Users\david\Desktop\École\Université\Undergrad\Work\Labs\ADC4\Draft9.asc
V1 a 0 3
R2 0 c 9
R3 c b 7
D1 a b D
.op
.backanno
.end