* C:\Users\david\Desktop\École\Université\Undergrad\Work\Labs\ADC4\Draft10.asc
R1 0 b 2
R2 a b 5
V1 a 0 SINE(0 1 1K)
.op
.backanno
.end