* C:\Users\david\Desktop\École\Université\Undergrad\Work\Labs\ADC4\Draft5.asc
R3 c 0 4
R2 b 0 3
R1 b a 5
V1 a c SINE(0 1 1K)
.op
.backanno
.end
