* C:\Users\david\Desktop\École\Université\Undergrad\Work\Labs\ADC4\Draft7.asc
V1 a 0 5
R1 b c 3
R2 a b 4
R3 0 c 2
.op
.backanno
.end