* C:\Users\david\Desktop\École\Université\Undergrad\Work\Labs\ADC4\Draft10.asc
V1 a 0 4
V2 b a 3
V3 c b 2
R1 c 0 1
.op
.backanno
.end
