Version 4
SHEET 1 880 680
WIRE 528 192 192 192
WIRE 192 208 192 192
WIRE 528 288 528 192
WIRE 192 336 192 288
WIRE 192 432 192 416
WIRE 320 432 192 432
WIRE 528 432 528 368
WIRE 528 432 320 432
FLAG 320 432 0
SYMBOL res 512 272 R0
SYMATTR InstName R1
SYMATTR Value 1
SYMBOL current 192 208 R0
SYMATTR InstName I2
SYMATTR Value 2
SYMBOL current 192 416 R180
WINDOW 0 24 80 Left 2
WINDOW 3 24 0 Left 2
SYMATTR InstName I1
SYMATTR Value 2
TEXT 528 240 Left 2 !.op
