* C:\Users\Jason\Downloads\Real\Real\Transients\Blank.asc
.backanno
.end
