Version 4
SHEET 1 880 680
WIRE 640 64 -128 64
WIRE 752 64 640 64
WIRE 848 64 752 64
WIRE -128 528 -128 64
WIRE 640 528 640 64
WIRE 640 528 -128 528
WIRE 752 528 752 64
WIRE 752 528 640 528
WIRE 848 528 848 64
WIRE 848 528 752 528
