Version 4
SHEET 1 880 680
WIRE 304 -32 128 -32
WIRE 192 80 160 80
WIRE 304 80 304 48
WIRE 304 80 272 80
WIRE 336 80 304 80
WIRE 448 80 416 80
WIRE 304 144 304 80
WIRE 160 288 160 80
WIRE 192 288 160 288
WIRE 304 288 304 224
WIRE 304 288 272 288
WIRE 336 288 304 288
WIRE 448 288 448 80
WIRE 448 288 416 288
WIRE 304 304 304 288
WIRE 304 304 272 304
WIRE 304 320 304 304
WIRE 128 336 128 -32
WIRE 272 336 272 304
WIRE 272 336 128 336
FLAG 304 320 0
FLAG 304 80 a
FLAG 160 80 b
FLAG 448 80 c
SYMBOL voltage 304 128 R0
SYMATTR InstName V1
SYMATTR Value 4
SYMBOL res 176 304 R270
WINDOW 0 32 56 VTop 2
WINDOW 3 0 56 VBottom 2
SYMATTR InstName R3
SYMATTR Value 8
SYMBOL res 288 64 R90
WINDOW 0 0 56 VBottom 2
WINDOW 3 32 56 VTop 2
SYMATTR InstName R1
SYMATTR Value 5
SYMBOL res 432 64 R90
WINDOW 0 0 56 VBottom 2
WINDOW 3 32 56 VTop 2
SYMATTR InstName R2
SYMATTR Value 6
SYMBOL res 432 272 R90
WINDOW 0 0 56 VBottom 2
WINDOW 3 32 56 VTop 2
SYMATTR InstName R4
SYMATTR Value 7
SYMBOL res 288 -48 R0
SYMATTR InstName R5
SYMATTR Value 3
TEXT 40 320 Left 2 !.op
