Version 4
SHEET 1 880 680
WIRE 96 80 0 80
WIRE 192 80 176 80
WIRE 208 80 192 80
WIRE 304 80 288 80
WIRE 0 96 0 80
WIRE 304 144 304 80
WIRE 304 144 192 144
WIRE 0 192 0 176
WIRE 0 208 0 192
WIRE 112 208 0 208
WIRE 192 208 192 144
WIRE 96 288 0 288
WIRE 192 288 96 288
WIRE 304 288 304 224
WIRE 304 288 272 288
WIRE 304 320 304 288
FLAG 304 320 0
FLAG 304 80 a
FLAG 192 80 b
FLAG 0 80 c
FLAG 96 288 e
FLAG 0 192 d
SYMBOL voltage 304 128 R0
SYMATTR InstName V1
SYMATTR Value 4
SYMBOL voltage 80 80 R270
WINDOW 0 32 56 VTop 2
WINDOW 3 -32 56 VBottom 2
SYMATTR InstName V2
SYMATTR Value 2
SYMBOL voltage 0 192 R0
SYMATTR InstName V3
SYMATTR Value 6
SYMBOL res 304 64 R90
WINDOW 0 0 56 VBottom 2
WINDOW 3 32 56 VTop 2
SYMATTR InstName R1
SYMATTR Value 3
SYMBOL res 16 192 R180
WINDOW 0 36 76 Left 2
WINDOW 3 36 40 Left 2
SYMATTR InstName R2
SYMATTR Value 5
SYMBOL res 176 304 R270
WINDOW 0 32 56 VTop 2
WINDOW 3 0 56 VBottom 2
SYMATTR InstName R3
SYMATTR Value 8
SYMBOL res 96 224 R270
WINDOW 0 32 56 VTop 2
WINDOW 3 0 56 VBottom 2
SYMATTR InstName R4
SYMATTR Value 7
