* C:\Users\david\Desktop\École\Université\Undergrad\Work\finalproject\Real\Transients\Draft1.asc
V1 b 0 4
V2 a b 2
R3 a 0 8
.op
.backanno
.end
