* C:\Users\Jason\Downloads\Real\Real\Transients\OP_V-Sine_C.asc
V1 N002 0 SINE(0 1 10)
C1 N002 0 1
.op
.backanno
.end
