* C:\Users\Jason\Downloads\Real\Real\Transients\OP_V-Sine_L.asc
V1 N001 0 SINE(0 1 10)
L1 N001 0 1
.op
.backanno
.end
