* C:\Users\Jason\Downloads\Real\Real\Transients\OP_V-DC_R.asc
V1 N001 0 1
R1 N001 0 1
.op
.backanno
.end
