* C:\Users\Jason\Downloads\Real\Real\Transients\OP_V-DC_L.asc
V1 N001 0 1
L1 N001 0 1
.op
.backanno
.end
