* C:\Users\Jason\Downloads\Real\Real\Transients\OP_V-DC_C.asc
V1 N001 0 1
C1 N001 0 1
.op
.backanno
.end
