* C:\Users\Jason\Downloads\Real\Real\Transients\OP_V-DC_R+C.asc
V1 N001 0 1
R1 N001 N002 1
C1 N002 0 1
.op
.backanno
.end
