* C:\Users\Jason\Downloads\Real\Real\Transients\OP_V-Sine_L+C.asc
V1 N001 0 SINE(0 1 10)
C1 N002 0 1
L1 N001 N002 1
.op
.backanno
.end
