* C:\Users\Jason\Downloads\Real\Real\Transients\TRAN_V-DC_R.asc
V1 N001 0 1
R1 N001 0 1
.tran 1
.backanno
.end
