* C:\Users\Jason\Downloads\Real\Real\Transients\TRAN_V-Sine_L+L.asc
V1 N001 0 SINE(0 1 10)
L1 N002 0 1
L2 N001 N002 1
.tran 1
.backanno
.end
