* C:\Users\Jason\Downloads\Real\Real\Transients\TRAN_V-Sine_R.asc
V1 N001 0 SINE(0 1 10)
R1 N001 0 1
.tran 1
.backanno
.end
