* C:\Users\Jason\Downloads\Real\Real\Transients\TRAN_V-DC_C.asc
V1 N002 0 1
C1 N002 0 1
.tran 1
.backanno
.end
