* C:\Users\Jason\Downloads\Real\Real\Transients\TRAN_V-DC_L.asc
V1 N002 0 1
L1 N002 0 1
.tran 1
.backanno
.end
