* C:\Users\Jason\Downloads\Real\Real\Transients\TRAN_V-Sine_C.asc
V1 N002 0 SINE(0 1 10)
C1 N002 0 1
.tran 1
.backanno
.end
