* C:\Users\Jason\Downloads\Real\Real\Transients\TRAN_V-DC_L+C.asc
V1 N001 0 1
C1 N002 0 1
L1 N001 N002 1
.tran 1
.backanno
.end
