* C:\Users\Jason\Downloads\Real\Real\VSourcesANDResistors\seriesVSource_R.asc
V1 N002 0 1
V2 N001 N002 1
R1 N001 0 1
.op
.backanno
.end
