* C:\Users\Jason\Downloads\Real\Real\VSourcesANDResistors\VSource_series2R_0Value.asc
V1 N001 0 1
R1 N001 0 1
.op
.backanno
.end
