* C:\Users\Jason\Downloads\Real\Real\CSourcesANDVSourcesANDResistors\CSource_R.asc
I1 N001 0 1
R1 N001 0 1
.op
.backanno
.end
